blazegraph/test/dss/WSU/LinesSwitchesGeometry.dss
! Three-phase and single-phase lines
! Line code definitions given in Geometry.DSS

! New 69kv transmission path
New Line.HVMV115B1_sw        bus1=HVMV115_HSB1        bus2=HVMV115_HSB2        switch=True r1=0.001 r0=0.001 x1=0.001 x0=0.001 C1=0 C0=0 length=0.001              !New 3-ph switch
New Line.HVMV69S1B4_sw       bus1=regxfmr_HVMV69sub1_LSB1 bus2=HVMV69sub1_LSB2 switch=True r1=0.001 r0=0.001 x1=0.001 x0=0.001 C1=0 C0=0 length=0.001              !New 3-ph switch
New Line.HVMV69S1B1_sw       bus1=HVMV69sub1_LSB2     bus2=HVMV69sub1_HSB      switch=True r1=0.001 r0=0.001 x1=0.001 x0=0.001 C1=0 C0=0 length=0.001              !New 3-ph switch
New Line.HVMV_Sub_connector  bus1=HVMV11sub1_LSB      bus2=HVMV_Sub1_48332     length=0.001       units=km r1=0.001 r0=0.001 x1=0.01 x0=0.01 c1=0 c0=0           
New Line.LN5710794-3         bus1=HVMV_Sub1_48332     bus2=D5710794-3_INT      length=0.019436038 units=km Geometry=3PH_H-397_ACSR397_ACSR397_ACSR397_ACSR normamps=450 emergamps=600  
New Line.HVMV69S1B2_sw       bus1=D5710794-3_INT      bus2=E192860             switch=True r1=0.001 r0=0.001 x1=0.001 x0=0.001 C1=0 C0=0 length=0.001               ! Renamed switch

New Line.HVMV69S1B3_sw       bus1=HVMV69sub1_LSB2     bus2=HVMV69S1S2_1        switch=True r1=0.001 r0=0.001 x1=0.001 x0=0.001 C1=0 C0=0 length=0.001              !New 3-ph switch
New Line.HVMV69S1S2-1        bus1=HVMV69S1S2_1        bus2=HVMV69S1S2_2        length=1.0        units=km Geometry=3ph-69kV_397_TREEWIRE normamps=450 emergamps=600  !New sub-transmission line
New Line.HVMV69S1S2-2        bus1=HVMV69S1S2_2        bus2=HVMV69S1S2_3        length=0.75        units=km Geometry=3ph-69kV_397_TREEWIRE normamps=450 emergamps=600  !New sub-transmission line
New Line.HVMV69S1S2-3        bus1=HVMV69S1S2_3        bus2=HVMV69S1S2_4        length=0.75        units=km Geometry=3ph-69kV_397_TREEWIRE normamps=450 emergamps=600  !New sub-transmission line
New Line.HVMV69S1S2-4        bus1=HVMV69S1S2_4        bus2=HVMV69S1S2_5        length=2.0         units=km Geometry=3ph-69kV_397_TREEWIRE normamps=450 emergamps=600  !New sub-transmission line
New Line.HVMV69S1S2-5        bus1=HVMV69S1S2_5        bus2=HVMV69S1S2_6        length=2.0         units=km Geometry=3ph-69kV_397_TREEWIRE normamps=450 emergamps=600  !New sub-transmission line
New Line.HVMV69S1S2-6        bus1=HVMV69S1S2_6        bus2=HVMV69S1S2_7        length=2.0         units=km Geometry=3ph-69kV_397_TREEWIRE normamps=450 emergamps=600  !New sub-transmission line
New Line.HVMV69S1S2-7        bus1=HVMV69S1S2_7        bus2=HVMV69S1S2_8        length=1.0         units=km Geometry=3ph-69kV_397_TREEWIRE normamps=450 emergamps=600  !New sub-transmission line
New Line.HVMV69S1S2-8        bus1=HVMV69S1S2_8        bus2=HVMV69S1S2_9        length=1.0         units=km Geometry=3ph-69kV_397_TREEWIRE normamps=450 emergamps=600  !New sub-transmission line
New Line.HVMV69S1S2-9        bus1=HVMV69S1S2_9        bus2=HVMV69S1S2_10       length=1.0         units=km Geometry=3ph-69kV_397_TREEWIRE normamps=450 emergamps=600  !New sub-transmission line
New Line.HVMV69S2B3_sw       bus1=HVMV69S1S2_10       bus2=HVMV69sub2_LNB      switch=True r1=0.001 r0=0.001 x1=0.001 x0=0.001 C1=0 C0=0 length=0.001              !New 3-ph switch
New Line.HVMV69S2B1_sw       bus1=HVMV69sub2_LNB      bus2=HVMV69sub2_HSB      switch=True r1=0.001 r0=0.001 x1=0.001 x0=0.001 C1=0 C0=0 length=0.001              !New 3-ph switch
New Line.HVMV69S2B2_sw       bus1=HVMV11sub2_LSB      bus2=m1047300            switch=True r1=0.001 r0=0.001 x1=0.001 x0=0.001 C1=0 C0=0 length=0.001              !New 3-ph switch

New Line.HVMV69S2B4_sw       bus1=HVMV69Sub2_LNB      bus2=HVMV69S2S3_1        switch=True r1=0.001 r0=0.001 x1=0.001 x0=0.001 C1=0 C0=0 length=0.001              !New 3-ph switch
New Line.HVMV69S2S3-1        bus1=HVMV69S2S3_1        bus2=HVMV69S2S3_2        length=4.5         units=km Geometry=3ph-69kV_397_TREEWIRE normamps=450 emergamps=600  !New sub-transmission line
New Line.HVMV69S3B1_sw       bus1=HVMV69S2S3_2        bus2=HVMV69sub3_HSB      switch=True r1=0.001 r0=0.001 x1=0.001 x0=0.001 C1=0 C0=0 length=0.001              !New 3-ph switch
New Line.HVMV69S3B2_sw       bus1=HVMV11sub3_LSB      bus2=e203026             switch=True r1=0.001 r0=0.001 x1=0.001 x0=0.001 C1=0 C0=0 length=0.001              !New 3-ph switch


! S1 path to trunk fork at node M1142843
New Line.LN5815900-1         bus1=E192860             bus2=M1209817            length=0.019593344 units=km Geometry=3PH_H-397_ACSR397_ACSR397_ACSR397_ACSR normamps=450 emergamps=600
New Line.LN5742828-1         bus1=M1209817            bus2=L2801909            length=0.025252282 units=km Geometry=3PH_H-397_ACSR397_ACSR397_ACSR397_ACSR normamps=450 emergamps=600
New Line.LN5742828-2         bus1=L2801909            bus2=M1209814            length=0.069272706 units=km Geometry=3PH_H-397_ACSR397_ACSR397_ACSR397_ACSR normamps=450 emergamps=600
New Line.LN5473414-1         bus1=M1209814            bus2=M1209811            length=0.10694866  units=km Geometry=3PH_H-397_ACSR397_ACSR397_ACSR397_ACSR normamps=450 emergamps=600
New Line.LN5714974-1         bus1=M1209811            bus2=M1209807            length=0.12260449  units=km Geometry=3PH_H-397_ACSR397_ACSR397_ACSR397_ACSR normamps=450 emergamps=600
New Line.LN5896798-1         bus1=M1209807            bus2=M1209805            length=0.044159942 units=km Geometry=3PH_H-397_ACSR397_ACSR397_ACSR397_ACSR normamps=450 emergamps=600
New Line.LN5775442-1         bus1=M1209805            bus2=L2823592            length=0.10556016  units=km Geometry=3PH_H-397_ACSR397_ACSR397_ACSR2/0_ACSR normamps=450 emergamps=600
New Line.CAP_1A              bus1=L2823592.1          bus2=L2823592_CAP.1      length=0.001       units=km r1=1.0        r0=1.0  x1=1.0      x0=1.0      c1=0     c0=0    Phases=1       
New Line.CAP_1B              bus1=L2823592.2          bus2=L2823592_CAP.2      length=0.001       units=km r1=1.0        r0=1.0  x1=1.0      x0=1.0      c1=0     c0=0    Phases=1       
New Line.CAP_1C              bus1=L2823592.3          bus2=L2823592_CAP.3      length=0.001       units=km r1=1.0        r0=1.0  x1=1.0      x0=1.0      c1=0     c0=0    Phases=1       
New Line.LN5513564-2         bus1=L2823592_CAP        bus2=R20185              length=0.001       units=km r1=1.0        r0=1.0  x1=1.0      x0=1.0      c1=0     c0=0      
New Line.LN5513564-1         bus1=R20185              bus2=D5513564-1_INT      length=0.021280456 units=km Geometry=3PH_H-397_ACSR397_ACSR397_ACSR2/0_ACSR normamps=450 emergamps=600 
New Line.XJ171_48332_sw      bus1=D5513564-1_INT      bus2=E192201             switch=True r1=0.001 r0=0.001 x1=0.001 x0=0.001 C1=0 C0=0 length=0.001
New Line.LN6321409-1         bus1=E192201             bus2=M1209800            length=0.055682141 units=km Geometry=3PH_H-397_ACSR397_ACSR397_ACSR2/0_ACSR normamps=450 emergamps=600 
New Line.LN5654466-1         bus1=M1209800            bus2=M1209797            length=0.075404767 units=km Geometry=3PH_H-397_ACSR397_ACSR397_ACSR2/0_ACSR normamps=450 emergamps=600
New Line.LN6291242-1         bus1=M1209797            bus2=M1209791            length=0.066599759 units=km Geometry=3PH_H-397_ACSR397_ACSR397_ACSR2/0_ACSR normamps=450 emergamps=600 
New Line.LN5654472-1         bus1=M1209791            bus2=M1209790            length=0.055242928 units=km Geometry=3PH_H-397_ACSR397_ACSR397_ACSR2/0_ACSR normamps=450 emergamps=600 
New Line.LN5594242-1         bus1=M1209790            bus2=M1209788            length=0.059115704 units=km Geometry=3PH_H-397_ACSR397_ACSR397_ACSR2/0_ACSR normamps=450 emergamps=600 
New Line.LN6351519-1         bus1=M1209788            bus2=M1209787            length=0.10721017  units=km Geometry=3PH_H-397_ACSR397_ACSR397_ACSR2/0_ACSR normamps=450 emergamps=600 
New Line.LN6261021-1         bus1=M1209787            bus2=L2823611            length=0.12435365  units=km Geometry=3PH_H-397_ACSR397_ACSR397_ACSR2/0_ACSR normamps=450 emergamps=600 
New Line.LN5473440-1         bus1=L2823611            bus2=L3030204            length=0.083489919 units=km Geometry=3PH_H-397_ACSR397_ACSR397_ACSR2/0_ACSR normamps=450 emergamps=600 
New Line.LN5866268-1         bus1=L3030204            bus2=M1186072            length=0.067199597 units=km Geometry=3PH_H-397_ACSR397_ACSR397_ACSR2/0_ACSR normamps=450 emergamps=600 
New Line.LN0048634_sw        bus1=M1186072            bus2=D6048634-1_INT      switch=True r1=0.001 r0=0.001 x1=0.001 x0=0.001 C1=0 C0=0 length=0.001      !New 3-ph switch
New Line.LN6048634-1         bus1=D6048634-1_INT      bus2=M1186067            length=0.042173829 units=km Geometry=3PH_H-397_ACSR397_ACSR397_ACSR2/0_ACSR normamps=450 emergamps=600 
New Line.LN6504019-5         bus1=M1186067            bus2=M3032980            length=0.05014083  units=km Geometry=3PH_H-397_ACSR397_ACSR397_ACSR2/0_ACSR normamps=450 emergamps=600 
New Line.LN6504020-2         bus1=M3032980            bus2=M3032977            length=0.25744439  units=km Geometry=3PH_H-397_ACSR397_ACSR397_ACSR2/0_ACSR normamps=450 emergamps=600 
New Line.LN6504018-1         bus1=M3032977            bus2=M1166366            length=0.3076146   units=km Geometry=3PH_H-397_ACSR397_ACSR397_ACSR2/0_ACSR normamps=450 emergamps=600 
New Line.LN5957526-1         bus1=M1166366            bus2=M1166368            length=0.041168179 units=km Geometry=3PH_H-397_ACSR397_ACSR397_ACSR2/0_ACSR normamps=450 emergamps=600 
New Line.LN5715052-1         bus1=M1166368            bus2=L2973833            length=0.10508824  units=km Geometry=3PH_H-397_ACSR397_ACSR397_ACSR2/0_ACSR normamps=450 emergamps=600 
New Line.LN5866308-1         bus1=L2973833            bus2=M1166373            length=0.041401205 units=km Geometry=3PH_H-397_ACSR397_ACSR397_ACSR2/0_ACSR normamps=450 emergamps=600 
New Line.LN6412354-1         bus1=M1166373            bus2=M1166374            length=0.009347399 units=km Geometry=3PH_H-397_ACSR397_ACSR397_ACSR2/0_ACSR normamps=450 emergamps=600 
New Line.LN6412355-1         bus1=M1166374            bus2=L2786266            length=0.06764679  units=km Geometry=3PH_H-397_ACSR397_ACSR397_ACSR2/0_ACSR normamps=450 emergamps=600 
New Line.LN5745355-1         bus1=L2786266            bus2=M1166375            length=0.034564588 units=km Geometry=3PH_H-397_ACSR397_ACSR397_ACSR2/0_ACSR normamps=450 emergamps=600 
New Line.LN5896834-1         bus1=M1166375            bus2=L2842383            length=0.09683365  units=km Geometry=3PH_H-397_ACSR397_ACSR397_ACSR2/0_ACSR normamps=450 emergamps=600 
New Line.LN6023352-1         bus1=L2842383            bus2=D6023352-1_INT      length=0.052958573 units=km Geometry=3PH_H-397_ACSR397_ACSR397_ACSR2/0_ACSR normamps=450 emergamps=600 
New Line.L9407_48332_sw      bus1=D6023352-1_INT      bus2=E184626             switch=True r1=0.001 r0=0.001 x1=0.001 x0=0.001 C1=0 C0=0 length=0.001
New Line.LN6326450-1         bus1=E184626             bus2=M1166377            length=0.010317742 units=km Geometry=3PH_H-397_ACSR397_ACSR397_ACSR2/0_ACSR normamps=450 emergamps=600 
New Line.LN5992960-1         bus1=M1166377            bus2=M1166376            length=0.033759753 units=km Geometry=3PH_H-397_ACSR397_ACSR397_ACSR2/0_ACSR normamps=450 emergamps=600 
New Line.LN5508630-1         bus1=M1166376            bus2=L2842384            length=0.005246984 units=km Geometry=3PH_H-397_ACSR397_ACSR397_ACSR2/0_ACSR normamps=450 emergamps=600 
New Line.LN5805762-1         bus1=L2842384            bus2=M1149236            length=0.067772686 units=km Geometry=3PH_H-397_ACSR397_ACSR397_ACSR2/0_ACSR normamps=450 emergamps=600 
New Line.LN6018336-1         bus1=M1149236            bus2=M1149235            length=0.041559119 units=km Geometry=3PH_H-397_ACSR397_ACSR397_ACSR2/0_ACSR normamps=450 emergamps=600 
New Line.LN5563942-4         bus1=M1149235            bus2=D5563942-4_INT      length=0.031133341 units=km Geometry=3PH_H-397_ACSR397_ACSR397_ACSR2/0_ACSR normamps=450 emergamps=600 
New Line.2002200004868472_sw bus1=D5563942-4_INT      bus2=Q16483              switch=True r1=0.001 r0=0.001 x1=0.001 x0=0.001 C1=0 C0=0 length=0.001
New Line.CAP_2A              bus1=Q16483.1            bus2=Q16483_CAP.1        length=0.001        units=km r1=1.0        r0=1.0  x1=1.0      x0=1.0      c1=0     c0=0           Phases=1
New Line.CAP_2B              bus1=Q16483.2            bus2=Q16483_CAP.2        length=0.001        units=km r1=1.0        r0=1.0  x1=1.0      x0=1.0      c1=0     c0=0           Phases=1
New Line.CAP_2C              bus1=Q16483.3            bus2=Q16483_CAP.3        length=0.001        units=km r1=1.0        r0=1.0  x1=1.0      x0=1.0      c1=0     c0=0           Phases=1
New Line.LN5563942-5         bus1=Q16483_CAP          bus2=R42247              length=0.005259517  units=km Geometry=3PH_H-397_ACSR397_ACSR397_ACSR2/0_ACSR normamps=450 emergamps=600 
New Line.LN5563942-3         bus1=R42247              bus2=M1149233            length=0.039748412 units=km Geometry=3PH_H-397_ACSR397_ACSR397_ACSR2/0_ACSR normamps=450 emergamps=600 
New Line.LN5896833-1         bus1=M1149233            bus2=L3048965            length=0.097395629 units=km Geometry=3PH_H-397_ACSR397_ACSR397_ACSR2/0_ACSR normamps=450 emergamps=600 
New Line.LN5805761-1         bus1=L3048965            bus2=M1142843            length=0.051340388 units=km Geometry=3PH_H-397_ACSR397_ACSR397_ACSR2/0_ACSR normamps=450 emergamps=600!Upgraded from 3PH_H-397_ACSR397_ACSR397_ACSR4_WPAL



! Upgraded path from substation 2 to substation 1 -- node M1026239 to 196-36167:
New Line.LN5895787-1         bus1=M1026329            bus2=M1026328            length=0.034167636 units=km Geometry=3PH_H-397_ACSR397_ACSR397_ACSR2/0_ACSR normamps=450 emergamps=600 !Upgraded from 3PH_H-4_ACSR4_ACSR4_ACSR4_ACSR
New Line.LN5835149-1         bus1=M1026330            bus2=M1026329            length=0.036059111 units=km Geometry=3PH_H-397_ACSR397_ACSR397_ACSR2/0_ACSR normamps=450 emergamps=600 !Upgraded from 3PH_H-4_ACSR4_ACSR4_ACSR4_ACSR normamps=90 emergamps=130         
New Line.LN6198013-1         bus1=M1026331            bus2=M1026330            length=0.056764184 units=km Geometry=3PH_H-397_ACSR397_ACSR397_ACSR2/0_ACSR normamps=450 emergamps=600 !Upgraded from 3PH_H-4_WPAL4_WPAL4_WPAL4_ACSR normamps=90 emergamps=130         
New Line.LN6198013-2         bus1=M1026333            bus2=M1026331            length=0.046120846 units=km Geometry=3PH_H-397_ACSR397_ACSR397_ACSR2/0_ACSR normamps=450 emergamps=600 !Upgraded from 3PH_H-4_WPAL4_WPAL4_WPAL4_ACSR normamps=90 emergamps=130         
New Line.LN6017302-1         bus1=L2973162            bus2=M1026333            length=0.053150629 units=km Geometry=3PH_H-397_ACSR397_ACSR397_ACSR2/0_ACSR normamps=450 emergamps=600 !Upgraded from 3PH_H-4_WPAL4_WPAL4_WPAL4_ACSR normamps=90 emergamps=130         
New Line.LN5683830-1         bus1=M1026341            bus2=L2973162            length=0.068567464 units=km Geometry=3PH_H-397_ACSR397_ACSR397_ACSR2/0_ACSR normamps=450 emergamps=600 !Upgraded from 3PH_H-4_WPAL4_WPAL4_WPAL4_WPAL normamps=90 emergamps=130        
New Line.LN5623408-1         bus1=M1026347            bus2=M1026341            length=0.050947837 units=km Geometry=3PH_H-397_ACSR397_ACSR397_ACSR2/0_ACSR normamps=450 emergamps=600 !Upgraded from 3PH_H-4_ACSR4_ACSR4_ACSR4_WPAL normamps=90 emergamps=130         
New Line.LN5774496-1         bus1=L3235275            bus2=M1026347            length=0.085972603 units=km Geometry=3PH_H-397_ACSR397_ACSR397_ACSR2/0_ACSR normamps=450 emergamps=600 !Upgraded from 3PH_H-4_ACSR4_ACSR4_ACSR4_ACSR normamps=90 emergamps=130         
New Line.LN5865271-1         bus1=M1026354            bus2=L3235275            length=0.071838269 units=km Geometry=3PH_H-397_ACSR397_ACSR397_ACSR2/0_ACSR normamps=450 emergamps=600 !Upgraded from 3PH_H-4_ACSR4_ACSR4_ACSR4_ACSR normamps=90 emergamps=130         
New Line.LN5895818-1         bus1=M1026356            bus2=M1026354            length=0.038743587 units=km Geometry=3PH_H-397_ACSR397_ACSR397_ACSR2/0_ACSR normamps=450 emergamps=600 !Upgraded from 3PH_H-4_ACSR4_ACSR4_ACSR4_ACSR normamps=90 emergamps=130         
New Line.LN5532791-1         bus1=M1026357            bus2=M1026356            length=0.029594278 units=km Geometry=3PH_H-397_ACSR397_ACSR397_ACSR2/0_ACSR normamps=450 emergamps=600 !Upgraded from 3PH_H-4_ACSR4_ACSR4_ACSR4_ACSR normamps=90 emergamps=130         
New Line.LN5956503-1         bus1=L3122849            bus2=M1026357            length=0.083981418 units=km Geometry=3PH_H-397_ACSR397_ACSR397_ACSR2/0_ACSR normamps=450 emergamps=600 !Upgraded from 3PH_H-4_ACSR4_ACSR4_ACSR4_ACSR normamps=90 emergamps=130         
New Line.LN6320368-1         bus1=L2691954            bus2=L3122849            length=0.064206951 units=km Geometry=3PH_H-397_ACSR397_ACSR397_ACSR2/0_ACSR normamps=450 emergamps=600 !Upgraded from 3PH_H-4_ACSR4_ACSR4_ACSR4_ACSR normamps=90 emergamps=130         
New Line.LN6229835-1         bus1=M1047292            bus2=L2691954            length=0.088604518 units=km Geometry=3PH_H-397_ACSR397_ACSR397_ACSR2/0_ACSR normamps=450 emergamps=600 !Upgraded from 3PH_H-4_ACSR4_ACSR4_ACSR4_WPAL normamps=90 emergamps=130         
New Line.LN6047605-1         bus1=M1047293            bus2=M1047292            length=0.020094199 units=km Geometry=3PH_H-397_ACSR397_ACSR397_ACSR2/0_ACSR normamps=450 emergamps=600 !Upgraded from 3PH_H-4_ACSR4_ACSR4_ACSR4_ACSR normamps=90 emergamps=130         
New Line.LN6379462-3         bus1=L2763153            bus2=M1047293            length=0.048347248 units=km Geometry=3PH_H-397_ACSR397_ACSR397_ACSR2/0_ACSR normamps=450 emergamps=600 !Upgraded from 3PH_H-4_ACSR4_ACSR4_ACSR4_ACSR normamps=90 emergamps=130         
New Line.LN6379462-2         bus1=L3139121            bus2=L2763153            length=0.075011137 units=km Geometry=3PH_H-397_ACSR397_ACSR397_ACSR2/0_ACSR normamps=450 emergamps=600 !Upgraded from 3PH_H-4_ACSR4_ACSR4_ACSR4_ACSR normamps=90 emergamps=130         
New Line.LN6379462-1         bus1=M1047299            bus2=L3139121            length=0.044989749 units=km Geometry=3PH_H-397_ACSR397_ACSR397_ACSR2/0_ACSR normamps=450 emergamps=600 !Upgraded from 3PH_H-4_ACSR4_ACSR4_ACSR4_ACSR normamps=90 emergamps=130         
New Line.LN5804836-1         bus1=M1047300            bus2=M1047299            length=0.062852147 units=km Geometry=3PH_H-397_ACSR397_ACSR397_ACSR2/0_ACSR normamps=450 emergamps=600 !Upgraded from 3PH_H-4_ACSR4_ACSR4_ACSR4_ACSR normamps=90 emergamps=130         
New Line.LN5774497-1         bus1=L3027116            bus2=M1047300            length=0.068887038 units=km Geometry=3PH_H-397_ACSR397_ACSR397_ACSR2/0_ACSR normamps=450 emergamps=600 !Upgraded from 3PH_H-4_ACSR4_ACSR4_ACSR4_ACSR normamps=90 emergamps=130         
New Line.LN5865272-1         bus1=M1047303            bus2=L3027116            length=0.072205824 units=km Geometry=3PH_H-397_ACSR397_ACSR397_ACSR2/0_ACSR normamps=450 emergamps=600 !Upgraded from 3PH_H-4_ACSR4_ACSR4_ACSR4_ACSR normamps=90 emergamps=130         
New Line.LN6380847-1         bus1=L3254238            bus2=M1047303            length=0.099313729 units=km Geometry=3PH_H-397_ACSR397_ACSR397_ACSR2/0_ACSR normamps=450 emergamps=600 !Upgraded from 3PH_H-4_ACSR4_ACSR4_ACSR4_ACSR normamps=90 emergamps=130         
New Line.LN6350577-1         bus1=L2673346            bus2=L3254238            length=0.12918061  units=km Geometry=3PH_H-397_ACSR397_ACSR397_ACSR2/0_ACSR normamps=450 emergamps=600 !Upgraded from 3PH_H-4_ACSR4_ACSR4_ACSR4_WPAL normamps=90 emergamps=130         
New Line.LN6171508-1         bus1=E182748             bus2=L2673346            length=0.063959809 units=km Geometry=3PH_H-397_ACSR397_ACSR397_ACSR2/0_ACSR normamps=450 emergamps=600 !Upgraded from 3PH_H-4_ACSR4_ACSR4_ACSR4_WPAL normamps=90 emergamps=130         
New Line.L5523_48332_sw      bus1=D6049825-1_INT      bus2=E182748             switch=True r1=0.001 r0=0.001 x1=0.001 x0=0.001 C1=0 C0=0 length=0.001
New Line.LN6049825-1         bus1=M1047309            bus2=D6049825-1_INT      length=0.004571141 units=km Geometry=3PH_H-397_ACSR397_ACSR397_ACSR2/0_ACSR normamps=450 emergamps=600 !Upgraded from 3PH_H-4_ACSR4_ACSR4_ACSR4_WPAL normamps=90 emergamps=130         
New Line.LN6320367-2         bus1=N1137960            bus2=M1047309            length=0.02515208  units=km Geometry=3PH_H-397_ACSR397_ACSR397_ACSR2/0_ACSR normamps=450 emergamps=600 !Upgraded from 3PH_H-4_ACSR4_ACSR4_ACSR4_WPAL normamps=90 emergamps=130         
New Line.LN6320367-3         bus1=M1047312            bus2=N1137960            length=0.015169217 units=km Geometry=3PH_H-397_ACSR397_ACSR397_ACSR2/0_ACSR normamps=450 emergamps=600 !Upgraded from 3PH_H-4_ACSR4_ACSR4_ACSR4_WPAL normamps=90 emergamps=130         
New Line.LN6199560-1         bus1=L3216370            bus2=M1047312            length=0.10088065  units=km Geometry=3PH_H-397_ACSR397_ACSR397_ACSR2/0_ACSR normamps=450 emergamps=600 !Upgraded from 3PH_H-4_ACSR4_ACSR4_ACSR4_WPAL normamps=90 emergamps=130         
New Line.LN5593253-1         bus1=M1047316            bus2=L3216370            length=0.014696401 units=km Geometry=3PH_H-397_ACSR397_ACSR397_ACSR2/0_ACSR normamps=450 emergamps=600 !Upgraded from 3PH_H-4_ACSR4_ACSR4_ACSR4_WPAL normamps=90 emergamps=130         
New Line.LN5714080-1         bus1=L3235255            bus2=M1047316            length=0.0512085   units=km Geometry=3PH_H-397_ACSR397_ACSR397_ACSR2/0_ACSR normamps=450 emergamps=600 !Upgraded from 3PH_H-4_ACSR4_ACSR4_ACSR4_WPAL normamps=90 emergamps=130         
New Line.LN5744341-1         bus1=L2897780            bus2=L3235255            length=0.043572099 units=km Geometry=3PH_H-397_ACSR397_ACSR397_ACSR2/0_ACSR normamps=450 emergamps=600 !Upgraded from 3PH_H-4_ACSR4_ACSR4_ACSR4_ACSR normamps=90 emergamps=130         
New Line.LN5986935-1         bus1=M1047324            bus2=L2897780            length=0.092596774 units=km Geometry=3PH_H-397_ACSR397_ACSR397_ACSR2/0_ACSR normamps=450 emergamps=600 !Upgraded from 3PH_H-4_ACSR4_ACSR4_ACSR4_WPAL normamps=90 emergamps=130         
New Line.LN6350546-1         bus1=M1047325            bus2=M1047324            length=0.009183718 units=km Geometry=3PH_H-397_ACSR397_ACSR397_ACSR2/0_ACSR normamps=450 emergamps=600 !Upgraded from 3PH_H-4_ACSR4_ACSR4_ACSR4_ACSR normamps=90 emergamps=130         
New Line.LN5926308-2         bus1=Q14412              bus2=M1047325            length=0.033944982 units=km Geometry=3PH_H-397_ACSR397_ACSR397_ACSR2/0_ACSR normamps=450 emergamps=600 !Upgraded from 3PH_H-4_ACSR4_ACSR4_ACSR4_ACSR normamps=90 emergamps=130         
New Line.LN4625696_sw        bus1=D5926308-3_INT      bus2=Q14412              switch=True r1=0.001 r0=0.001 x1=0.001 x0=0.001 C1=0 C0=0 length=0.001
New Line.LN5926308-3         bus1=L2860491            bus2=D5926308-3_INT      length=0.034344255 units=km Geometry=3PH_H-397_ACSR397_ACSR397_ACSR2/0_ACSR normamps=450 emergamps=600 !Upgraded from 3PH_H-4_ACSR4_ACSR4_ACSR4_ACSR normamps=90 emergamps=130         
New Line.LN5472370-1         bus1=M1047339            bus2=L2860491            length=0.082877838 units=km Geometry=3PH_H-397_ACSR397_ACSR397_ACSR2/0_ACSR normamps=450 emergamps=600 !Upgraded from 3PH_H-4_ACSR4_ACSR4_ACSR4_ACSR normamps=90 emergamps=130         
New Line.LN6047583-1         bus1=L2991922            bus2=M1047339            length=0.072207928 units=km Geometry=3PH_H-397_ACSR397_ACSR397_ACSR2/0_ACSR normamps=450 emergamps=600 !Upgraded from 3PH_H-4_WPAL4_WPAL4_WPAL4_ACSR normamps=90 emergamps=130         
New Line.LN6047584-1         bus1=M1047345            bus2=L2991922            length=0.054627261 units=km Geometry=3PH_H-397_ACSR397_ACSR397_ACSR2/0_ACSR normamps=450 emergamps=600 !Upgraded from 3PH_H-4_WPAL4_WPAL4_WPAL4_ACSR normamps=90 emergamps=130         
New Line.LN5865248-1         bus1=M1047346            bus2=M1047345            length=0.043145742 units=km Geometry=3PH_H-397_ACSR397_ACSR397_ACSR2/0_ACSR normamps=450 emergamps=600 !Upgraded from 3PH_H-4_WPAL4_WPAL4_WPAL4_ACSR normamps=90 emergamps=130         
New Line.LN5472369-1         bus1=L3104134            bus2=M1047346            length=0.046491295 units=km Geometry=3PH_H-397_ACSR397_ACSR397_ACSR2/0_ACSR normamps=450 emergamps=600 !Upgraded from 3PH_H-4_WPAL4_WPAL4_WPAL4_ACSR normamps=90 emergamps=130         
New Line.LN5683831-1         bus1=L2860490            bus2=L3104134            length=0.063357888 units=km Geometry=3PH_H-397_ACSR397_ACSR397_ACSR2/0_ACSR normamps=450 emergamps=600 !Upgraded from 3PH_H-4_ACSR4_ACSR4_ACSR4_ACSR normamps=90 emergamps=130         
New Line.LN6199527-1         bus1=L3254218            bus2=L2860490            length=0.071264489 units=km Geometry=3PH_H-397_ACSR397_ACSR397_ACSR2/0_ACSR normamps=450 emergamps=600 !Upgraded from 3PH_H-4_ACSR4_ACSR4_ACSR4_ACSR normamps=90 emergamps=130         
New Line.LN6199530-1         bus1=R18242              bus2=L3254218            length=0.037866233 units=km Geometry=3PH_H-397_ACSR397_ACSR397_ACSR2/0_ACSR normamps=450 emergamps=600 !Upgraded from 3PH_H-4_ACSR4_ACSR4_ACSR4_ACSR normamps=90 emergamps=130         
New Line.LN6138614-1         bus1=M1069135            bus2=R18242              length=0.070990263 units=km Geometry=3PH_H-397_ACSR397_ACSR397_ACSR2/0_ACSR normamps=450 emergamps=600 !Upgraded from 3PH_H-4_WPAL4_WPAL4_WPAL4_WPAL normamps=90 emergamps=130        
New Line.LN5804802-1         bus1=M1069136            bus2=M1069135            length=0.075176765 units=km Geometry=3PH_H-397_ACSR397_ACSR397_ACSR2/0_ACSR normamps=450 emergamps=600 !Upgraded from 3PH_H-4_ACSR4_ACSR4_ACSR4_WPAL normamps=90 emergamps=130         
New Line.LN5593239-1         bus1=L3235256            bus2=M1069136            length=0.034893687 units=km Geometry=3PH_H-397_ACSR397_ACSR397_ACSR2/0_ACSR normamps=450 emergamps=600 !Upgraded from 3PH_H-4_ACSR4_ACSR4_ACSR4_WPAL normamps=90 emergamps=130         
New Line.LN6229807-1         bus1=L3197630            bus2=L3235256            length=0.11970471  units=km Geometry=3PH_H-397_ACSR397_ACSR397_ACSR2/0_ACSR normamps=450 emergamps=600 !Upgraded from 3PH_H-4_ACSR4_ACSR4_ACSR4_WPAL normamps=90 emergamps=130         
New Line.LN6047561-1         bus1=M1069154            bus2=L3197630            length=0.17770738  units=km Geometry=3PH_H-397_ACSR397_ACSR397_ACSR2/0_ACSR normamps=450 emergamps=600 !Upgraded from 3PH_H-4_ACSR4_ACSR4_ACSR4_ACSR normamps=90 emergamps=130         
New Line.LN5532743-1         bus1=M1069155            bus2=M1069154            length=0.10054978  units=km Geometry=3PH_H-397_ACSR397_ACSR397_ACSR2/0_ACSR normamps=450 emergamps=600 !Upgraded from 3PH_H-4_ACSR4_ACSR4_ACSR4_ACSR normamps=90 emergamps=130         
New Line.LN5774453-1         bus1=M1069156            bus2=M1069155            length=0.12496298  units=km Geometry=3PH_H-397_ACSR397_ACSR397_ACSR2/0_ACSR normamps=450 emergamps=600 !Upgraded from 3PH_H-4_ACSR4_ACSR4_ACSR4_ACSR normamps=90 emergamps=130         
New Line.LN6320329-1         bus1=L3048206            bus2=M1069156            length=0.059893238 units=km Geometry=3PH_H-397_ACSR397_ACSR397_ACSR2/0_ACSR normamps=450 emergamps=600 !Upgraded from 3PH_H-4_ACSR4_ACSR4_ACSR4_WPAL normamps=90 emergamps=130         
New Line.LN5956463-1         bus1=L2766718            bus2=L3048206            length=0.091797543 units=km Geometry=3PH_H-397_ACSR397_ACSR397_ACSR2/0_ACSR normamps=450 emergamps=600 !Upgraded from 3PH_H-4_ACSR4_ACSR4_ACSR4_ACSR normamps=90 emergamps=130         
New Line.LN5593222-1         bus1=L3010556            bus2=L2766718            length=0.1061942   units=km Geometry=3PH_H-397_ACSR397_ACSR397_ACSR2/0_ACSR normamps=450 emergamps=600 !Upgraded from 3PH_H-4_ACSR4_ACSR4_ACSR4_ACSR normamps=90 emergamps=130         
New Line.LN5804791-1         bus1=M1069169            bus2=L3010556            length=0.073355839 units=km Geometry=3PH_H-397_ACSR397_ACSR397_ACSR2/0_ACSR normamps=450 emergamps=600 !Upgraded from 3PH_H-4_ACSR4_ACSR4_ACSR4_WPAL normamps=90 emergamps=130         
New Line.LN5806919-1         bus1=E182724             bus2=M1069169            length=0.092995455 units=km Geometry=3PH_H-397_ACSR397_ACSR397_ACSR2/0_ACSR normamps=450 emergamps=600 !Upgraded from 3PH_H-4_ACSR4_ACSR4_ACSR4_WPAL normamps=90 emergamps=130         
New Line.X8223_48332_sw      bus1=D6413567-3_INT      bus2=E182724             switch=True r1=0.001 r0=0.001 x1=0.001 x0=0.001 C1=0 C0=0 length=0.001
New Line.LN6413567-3         bus1=N1139541            bus2=D6413567-3_INT      length=0.014966786 units=km Geometry=3PH_H-397_ACSR397_ACSR397_ACSR2/0_ACSR normamps=450 emergamps=600 !Upgraded from 3PH_H-4_ACSR4_ACSR4_ACSR4_WPAL normamps=90 emergamps=130         
New Line.LN6413567-2         bus1=M1069175            bus2=N1139541            length=0.043586139 units=km Geometry=3PH_H-397_ACSR397_ACSR397_ACSR2/0_ACSR normamps=450 emergamps=600 !Upgraded from 3PH_H-4_ACSR4_ACSR4_ACSR4_WPAL normamps=90 emergamps=130         
New Line.LN6017299-1         bus1=M1069184            bus2=M1069175            length=0.063876516 units=km Geometry=3PH_H-397_ACSR397_ACSR397_ACSR2/0_ACSR normamps=450 emergamps=600 !Upgraded from 3PH_H-4_WPAL4_WPAL4_WPAL4_ACSR normamps=90 emergamps=130         
New Line.LN6108136-1         bus1=M1069189            bus2=M1069184            length=0.025828657 units=km Geometry=3PH_H-397_ACSR397_ACSR397_ACSR2/0_ACSR normamps=450 emergamps=600 !Upgraded from 3PH_H-4_WPAL4_WPAL4_WPAL4_WPAL normamps=90 emergamps=130        
New Line.LN5501088-1         bus1=L3195356            bus2=M1069189            length=0.072285373 units=km Geometry=3PH_H-397_ACSR397_ACSR397_ACSR2/0_ACSR normamps=450 emergamps=600 !Upgraded from 3PH_H-4_WPAL4_WPAL4_WPAL4_WPAL normamps=90 emergamps=130        
New Line.LN5863823-1         bus1=M1089112            bus2=L3195356            length=0.039290988 units=km Geometry=3PH_H-397_ACSR397_ACSR397_ACSR2/0_ACSR normamps=450 emergamps=600 !Upgraded from 3PH_H-4_WPAL4_WPAL4_WPAL4_WPAL normamps=90 emergamps=130        
New Line.LN5593234-1         bus1=M1089115            bus2=M1089112            length=0.091503606 units=km Geometry=3PH_H-397_ACSR397_ACSR397_ACSR2/0_ACSR normamps=450 emergamps=600 !Upgraded from 3PH_H-4_ACSR4_ACSR4_ACSR4_WPAL normamps=90 emergamps=130         
New Line.LN5835143-1         bus1=M1089118            bus2=M1089115            length=0.16170829  units=km Geometry=3PH_H-397_ACSR397_ACSR397_ACSR2/0_ACSR normamps=450 emergamps=600 !Upgraded from 3PH_H-4_ACSR4_ACSR4_ACSR4_WPAL normamps=90 emergamps=130         
New Line.LN5683823-1         bus1=M1089119            bus2=M1089118            length=0.078884003 units=km Geometry=3PH_H-397_ACSR397_ACSR397_ACSR2/0_ACSR normamps=450 emergamps=600 !Upgraded from 3PH_H-4_ACSR4_ACSR4_ACSR4_WPAL normamps=90 emergamps=130         
New Line.LN5472360-1         bus1=M1089120            bus2=M1089119            length=0.057934318 units=km Geometry=3PH_H-397_ACSR397_ACSR397_ACSR2/0_ACSR normamps=450 emergamps=600 !Upgraded from 3PH_H-4_ACSR4_ACSR4_ACSR4_WPAL normamps=90 emergamps=130         
New Line.LN5472335_sw        bus1=D5472350-1_INT      bus2=m1089120            switch=True r1=0.001 r0=0.001 x1=0.001 x0=0.001 C1=0 C0=0 length=0.001                                 !New 3-ph switch
New Line.LN5502532-1         bus1=190-7361            bus2=D5472350-1_INT      length=0.005820451 units=km Geometry=3PH_H-397_ACSR397_ACSR397_ACSR2/0_ACSR normamps=450 emergamps=600 !Upgraded from 3PH_H-4_ACSR4_ACSR4_ACSR4_WPAL normamps=90 emergamps=130         
New Line.LN6138608-2         bus1=Q14404              bus2=regxfmr_190-7361    length=0.004597065 units=km Geometry=3PH_H-397_ACSR397_ACSR397_ACSR2/0_ACSR normamps=450 emergamps=600 !Upgraded from 3PH_H-4_ACSR4_ACSR4_ACSR4_WPAL normamps=90 emergamps=130         
New Line.LN4586093_sw        bus1=D6138608-3_INT      bus2=Q14404              switch=True r1=0.001 r0=0.001 x1=0.001 x0=0.001 C1=0 C0=0 length=0.001
New Line.LN6138608-3         bus1=L3029502            bus2=D6138608-3_INT      length=0.085516894 units=km Geometry=3PH_H-397_ACSR397_ACSR397_ACSR2/0_ACSR normamps=450 emergamps=600 !Upgraded from 3PH_H-4_ACSR4_ACSR4_ACSR4_WPAL
New Line.LN6290212-1         bus1=M1089131            bus2=L3029502            length=0.095769969 units=km Geometry=3PH_H-397_ACSR397_ACSR397_ACSR2/0_ACSR normamps=450 emergamps=600 !Upgraded from 3PH_H-4_ACSR4_ACSR4_ACSR4_WPAL normamps=90 emergamps=130         
New Line.LN5502531-1         bus1=L3104125            bus2=M1089131            length=0.038246899 units=km Geometry=3PH_H-397_ACSR397_ACSR397_ACSR2/0_ACSR normamps=450 emergamps=600 !Upgraded from 3PH_H-4_ACSR4_ACSR4_ACSR4_WPAL normamps=90 emergamps=130         
New Line.LN6350541-1         bus1=L3160107            bus2=L3104125            length=0.10782787  units=km Geometry=3PH_H-397_ACSR397_ACSR397_ACSR2/0_ACSR normamps=450 emergamps=600 !Upgraded from 3PH_H-4_ACSR4_ACSR4_ACSR4_WPAL normamps=90 emergamps=130         
New Line.LN6259995-1         bus1=M1089141            bus2=L3160107            length=0.11055144  units=km Geometry=3PH_H-397_ACSR397_ACSR397_ACSR2/0_ACSR normamps=450 emergamps=600 !Upgraded from 3PH_H-4_ACSR4_ACSR4_ACSR2_WPAL          
New Line.LN5502533-1         bus1=M1089143            bus2=M1089141            length=0.13735777  units=km Geometry=3PH_H-397_ACSR397_ACSR397_ACSR2/0_ACSR normamps=450 emergamps=600 !Upgraded from 3PH_H-4_ACSR4_ACSR4_ACSR4_ACSR normamps=90 emergamps=130                  
New Line.LN5623403-1         bus1=L3029498            bus2=M1089143            length=0.087713405 units=km Geometry=3PH_H-397_ACSR397_ACSR397_ACSR2/0_ACSR normamps=450 emergamps=600 !Upgraded from 3PH_H-4_ACSR4_ACSR4_ACSR4_ACSR normamps=90 emergamps=130         
New Line.LN6440069-1         bus1=L2933164            bus2=L3029498            length=0.067491088 units=km Geometry=3PH_H-397_ACSR397_ACSR397_ACSR2/0_ACSR normamps=450 emergamps=600 !Upgraded from 3PH_H-4_ACSR4_ACSR4_ACSR4_WPAL normamps=90 emergamps=130         
New Line.LN5955063-1         bus1=M1108286            bus2=L2933164            length=0.079292547 units=km Geometry=3PH_H-397_ACSR397_ACSR397_ACSR2/0_ACSR normamps=450 emergamps=600 !Upgraded from 3PH_H-4_ACSR4_ACSR4_ACSR4_ACSR normamps=90 emergamps=130         
New Line.LN5527400-1         bus1=L2688692            bus2=M1108286            length=0.005096697 units=km Geometry=3PH_H-397_ACSR397_ACSR397_ACSR2/0_ACSR normamps=450 emergamps=600 !Upgraded from 3PH_H-4_ACSR4_ACSR4_ACSR4_WPAL normamps=90 emergamps=130         
New Line.LN6256144-1         bus1=L2688693            bus2=L2688692            length=0.039178841 units=km Geometry=3PH_H-397_ACSR397_ACSR397_ACSR2/0_ACSR normamps=450 emergamps=600 !Upgraded from 3PH_H-4_ACSR4_ACSR4_ACSR4_WPAL normamps=90 emergamps=130         
New Line.LN6256144-3         bus1=N1139547            bus2=L2688693            length=0.085025858 units=km Geometry=3PH_H-397_ACSR397_ACSR397_ACSR2/0_ACSR normamps=450 emergamps=600 !Upgraded from 3PH_H-4_ACSR4_ACSR4_ACSR4_WPAL normamps=90 emergamps=130         
New Line.LN6256144-4         bus1=L2804249            bus2=N1139547            length=0.071007562 units=km Geometry=3PH_H-397_ACSR397_ACSR397_ACSR2/0_ACSR normamps=450 emergamps=600 !Upgraded from 3PH_H-4_ACSR4_ACSR4_ACSR4_WPAL normamps=90 emergamps=130         
New Line.LN6079946-1         bus1=L3179678            bus2=L2804249            length=0.1177636   units=km Geometry=3PH_H-397_ACSR397_ACSR397_ACSR2/0_ACSR normamps=450 emergamps=600 !Upgraded from 3PH_H-4_ACSR4_ACSR4_ACSR4_WPAL normamps=90 emergamps=130         
New Line.LN5473449-1         bus1=L2936279            bus2=L3179678            length=0.10170662  units=km Geometry=3PH_H-397_ACSR397_ACSR397_ACSR2/0_ACSR normamps=450 emergamps=600 !Upgraded from 3PH_H-4_ACSR4_ACSR4_ACSR4_WPAL normamps=90 emergamps=130         
New Line.LN6109158-1         bus1=M1108295            bus2=L2936279            length=0.083738516 units=km Geometry=3PH_H-397_ACSR397_ACSR397_ACSR2/0_ACSR normamps=450 emergamps=600 !Upgraded from 3PH_H-4_ACSR4_ACSR4_ACSR4_ACSR normamps=90 emergamps=130         
New Line.LN6351524-1         bus1=L3011298            bus2=M1108295            length=0.080155934 units=km Geometry=3PH_H-397_ACSR397_ACSR397_ACSR2/0_ACSR normamps=450 emergamps=600 !Upgraded from 3PH_H-4_ACSR4_ACSR4_ACSR4_WPAL normamps=90 emergamps=130         
New Line.LN6106511-1         bus1=196-36167           bus2=L3011298            length=0.081552278 units=km Geometry=3PH_H-397_ACSR397_ACSR397_ACSR2/0_ACSR normamps=450 emergamps=600 !Upgraded from 3PH_H-4_ACSR4_ACSR4_ACSR4_ACSR
! S2 to S1 path meets portion of trunk with full-size conductors up to trunk split at node M1142843     
New Line.LN5531195-1         bus1=M1108298            bus2=196-36167           length=0.039267282 units=km Geometry=3PH_H-397_ACSR397_ACSR397_ACSR2/0_ACSR normamps=450 emergamps=600 
New Line.LN6321427-1         bus1=L2879773            bus2=M1108298            length=0.092671409 units=km Geometry=3PH_H-397_ACSR397_ACSR397_ACSR2/0_ACSR normamps=450 emergamps=600 
New Line.LN0170302_sw        bus1=D6170302-1_INT      bus2=L2879773            switch=True r1=0.001 r0=0.001 x1=0.001 x0=0.001 C1=0 C0=0 length=0.001              !New 3-ph switch
New Line.LN6170302-1         bus1=M1108311            bus2=D6170302-1_INT      length=0.088826538 units=km Geometry=3PH_H-397_ACSR397_ACSR397_ACSR2/0_ACSR normamps=450 emergamps=600 
New Line.LN6291253-1         bus1=M1108315            bus2=M1108311            length=0.072202851 units=km Geometry=3PH_H-397_ACSR397_ACSR397_ACSR2/0_ACSR normamps=450 emergamps=600 
New Line.LN6018341-1         bus1=L2955081            bus2=M1108315            length=0.094684869 units=km Geometry=3PH_H-397_ACSR397_ACSR397_ACSR2/0_ACSR normamps=450 emergamps=600 
New Line.LN6291252-2         bus1=226-23751           bus2=L2955081            length=0.041939554 units=km Geometry=3PH_H-397_ACSR397_ACSR397_ACSR2/0_ACSR normamps=450 emergamps=600 
New Line.LN6291252-1         bus1=M1125902            bus2=226-23751           length=0.075868797 units=km Geometry=3PH_H-397_ACSR397_ACSR397_ACSR2/0_ACSR normamps=450 emergamps=600 
New Line.LN6201850-1         bus1=E183493             bus2=M1125902            length=0.089259045 units=km Geometry=3PH_H-397_ACSR397_ACSR397_ACSR2/0_ACSR normamps=450 emergamps=600 
New Line.A8645_48332_sw      bus1=D5958866-1_INT      bus2=E183493             switch=True r1=0.001 r0=0.001 x1=0.001 x0=0.001 C1=0 C0=0 length=0.001
New Line.LN5958866-1         bus1=L2861218            bus2=D5958866-1_INT      length=0.15933779  units=km Geometry=3PH_H-397_ACSR397_ACSR397_ACSR2/0_ACSR normamps=450 emergamps=600 
New Line.LN6351511-1         bus1=L2917328            bus2=L2861218            length=0.064601236 units=km Geometry=3PH_H-397_ACSR397_ACSR397_ACSR2/0_ACSR normamps=450 emergamps=600 
New Line.LN6078768-1         bus1=M1125914            bus2=L2917328            length=0.042000852 units=km Geometry=3PH_H-397_ACSR397_ACSR397_ACSR2/0_ACSR normamps=450 emergamps=600 
New Line.LN5957493-1         bus1=M1125917            bus2=M1125914            length=0.090952991 units=km Geometry=3PH_H-397_ACSR397_ACSR397_ACSR2/0_ACSR normamps=450 emergamps=600 
New Line.LN5745347-1         bus1=M1125919            bus2=M1125917            length=0.039996823 units=km Geometry=3PH_H-397_ACSR397_ACSR397_ACSR2/0_ACSR normamps=450 emergamps=600 
New Line.LN6170293-1         bus1=L2992624            bus2=M1125919            length=0.051051209 units=km Geometry=3PH_H-397_ACSR397_ACSR397_ACSR2/0_ACSR normamps=450 emergamps=600 
New Line.LN6200527-1         bus1=L2730163            bus2=L2992624            length=0.084532303 units=km Geometry=3PH_H-397_ACSR397_ACSR397_ACSR2/0_ACSR normamps=450 emergamps=600 
New Line.LN5503576-1         bus1=M1125934            bus2=L2730163            length=0.063376308 units=km Geometry=3PH_H-397_ACSR397_ACSR397_ACSR2/0_ACSR normamps=450 emergamps=600 
New Line.LN6078767-1         bus1=L3030199            bus2=M1125934            length=0.029294768 units=km Geometry=3PH_H-397_ACSR397_ACSR397_ACSR2/0_ACSR normamps=450 emergamps=600 
New Line.LN5594239-1         bus1=L2955074            bus2=L3030199            length=0.089159532 units=km Geometry=3PH_H-397_ACSR397_ACSR397_ACSR2/0_ACSR normamps=450 emergamps=600 
New Line.LN6200532-1         bus1=M1142818            bus2=L2955074            length=0.093152425 units=km Geometry=3PH_H-397_ACSR397_ACSR397_ACSR2/0_ACSR normamps=450 emergamps=600 
New Line.LN5745348-1         bus1=M1142819            bus2=M1142818            length=0.074984761 units=km Geometry=3PH_H-397_ACSR397_ACSR397_ACSR2/0_ACSR normamps=450 emergamps=600 
New Line.LN5654471-1         bus1=L2711226            bus2=M1142819            length=0.078168069 units=km Geometry=3PH_H-397_ACSR397_ACSR397_ACSR2/0_ACSR normamps=450 emergamps=600 
New Line.LN6351510-1         bus1=M1142821            bus2=L2711226            length=0.001633431 units=km Geometry=3PH_H-397_ACSR397_ACSR397_ACSR2/0_ACSR normamps=450 emergamps=600
New Line.LN5896825-1         bus1=L2692655            bus2=M1142821            length=0.05352371  units=km Geometry=3PH_H-397_ACSR397_ACSR397_ACSR2/0_ACSR normamps=450 emergamps=600 
New Line.LN5473436-2         bus1=L2674047            bus2=L2692655            length=0.06085092  units=km Geometry=3PH_H-397_ACSR397_ACSR397_ACSR2/0_ACSR normamps=450 emergamps=600 
New Line.LN5473436-1         bus1=M1142828            bus2=L2674047            length=0.0003048   units=km Geometry=3PH_H-397_ACSR397_ACSR397_ACSR2/0_ACSR normamps=450 emergamps=600 
New Line.LN6291244-1         bus1=L3160865            bus2=M1142828            length=0.13060128  units=km Geometry=3PH_H-397_ACSR397_ACSR397_ACSR2/0_WPAL normamps=450 emergamps=600
New Line.LN6018331-1         bus1=M1142832            bus2=L3160865            length=0.067079697 units=km Geometry=3PH_H-397_ACSR397_ACSR397_ACSR2/0_ACSR normamps=450 emergamps=600 
New Line.LN5503575-1         bus1=M1142839            bus2=M1142832            length=0.072992255 units=km Geometry=3PH_H-397_ACSR397_ACSR397_ACSR2/0_ACSR normamps=450 emergamps=600
New Line.LN5594236-1         bus1=E193509             bus2=M1142839            length=0.062408228 units=km Geometry=3PH_H-397_ACSR397_ACSR397_ACSR2/0_ACSR normamps=450 emergamps=600 
New Line.a8611_48332_sw      bus1=D5799561-2_INT      bus2=E193509             switch=True r1=0.001 r0=0.001 x1=0.001 x0=0.001 C1=0 C0=0 length=0.001
New Line.LN5799561-2         bus1=L3081380            bus2=D5799561-2_INT      length=0.092120627 units=km Geometry=3PH_H-397_ACSR397_ACSR397_ACSR2/0_ACSR normamps=450 emergamps=600 
New Line.LN5799561-1         bus1=M1142843            bus2=L3081380            length=0.110589    units=km Geometry=3PH_H-397_ACSR397_ACSR397_ACSR2/0_ACSR normamps=450 emergamps=600
       
! S2 to S3 upgraded conductor path - 3-ph tie from node m1089112.3 to node M1069310
New Line.LN0138609_sw        bus1=M1089112            bus2=D6138609-1_INT     switch=True r1=0.001 r0=0.001 x1=0.001 x0=0.001 C1=0 C0=0 length=0.001  !New 1-ph switch
New Line.LN6138609-1         bus1=D6138609-1_INT      bus2=L2691951            length=0.06504075  units=km Geometry=3PH_H-2/0_ACSR2/0_ACSR2/0_ACSR2_ACSR normamps=225 emergamps=300 !upgraded from 1PH-xx4_WPAL4_WPAL normamps=90 emergamps=130              
New Line.LN6292465-2         bus1=L2691951            bus2=N1139542            length=0.023117766 units=km Geometry=3PH_H-2/0_ACSR2/0_ACSR2/0_ACSR2_ACSR normamps=225 emergamps=300 !upgraded from 1PH-xx4_WPAL4_WPAL normamps=90 emergamps=130              
New Line.LN6292465-3         bus1=N1139542            bus2=P827523             length=0.021595342 units=km Geometry=3PH_H-2/0_ACSR2/0_ACSR2/0_ACSR2_ACSR normamps=225 emergamps=300 !upgraded from 1PH-xx4_WPAL4_WPAL normamps=90 emergamps=130              
New Line.LN5837355-1         bus1=P827523             bus2=L2879076            length=0.035336707 units=km Geometry=3PH_H-2/0_ACSR2/0_ACSR2/0_ACSR2_ACSR normamps=225 emergamps=300 !upgraded from 1PH-xx4_WPAL4_WPAL normamps=90 emergamps=130              
New Line.LN5532751-1         bus1=L2879076            bus2=M1089122            length=0.024244087 units=km Geometry=3PH_H-2/0_ACSR2/0_ACSR2/0_ACSR2_ACSR normamps=225 emergamps=300 !upgraded from 1PH-xx4_WPAL4_WPAL normamps=90 emergamps=130              
New Line.LN6108137-1         bus1=M1089122            bus2=M1089132            length=0.076079413 units=km Geometry=3PH_H-2/0_ACSR2/0_ACSR2/0_ACSR2_ACSR normamps=225 emergamps=300 !upgraded from 1PH-xx4_WPAL4_WPAL normamps=90 emergamps=130              
New Line.LN6077779-1         bus1=M1089132            bus2=L3029503            length=0.047003092 units=km Geometry=3PH_H-2/0_ACSR2/0_ACSR2/0_ACSR2_ACSR normamps=225 emergamps=300 !upgraded from 1PH-xx4_WPAL4_WPAL normamps=90 emergamps=130              
New Line.LN5683824-1         bus1=L3029503            bus2=M1069202            length=0.06302783  units=km Geometry=3PH_H-2/0_ACSR2/0_ACSR2/0_ACSR2_ACSR normamps=225 emergamps=300 !upgraded from 1PH-xx4_WPAL4_WPAL normamps=90 emergamps=130              
New Line.LN5956467-1         bus1=M1069202            bus2=L2879073            length=0.1215708   units=km Geometry=3PH_H-2/0_ACSR2/0_ACSR2/0_ACSR2_ACSR normamps=225 emergamps=300 !upgraded from 1PH-xx4_WPAL4_WPAL normamps=90 emergamps=130              
New Line.LN5835140-1         bus1=L2879073            bus2=M1069205            length=0.062527943 units=km Geometry=3PH_H-2/0_ACSR2/0_ACSR2/0_ACSR2_ACSR normamps=225 emergamps=300 !upgraded from 1PH-xx4_WPAL4_WPAL normamps=90 emergamps=130              
New Line.LN5472358-1         bus1=M1069205            bus2=M1069208            length=0.036301599 units=km Geometry=3PH_H-2/0_ACSR2/0_ACSR2/0_ACSR2_ACSR normamps=225 emergamps=300 !upgraded from 1PH-xx4_ACSR4_ACSR normamps=90 emergamps=130               
New Line.LN5593233-1         bus1=M1069208            bus2=M1069213            length=0.1415619   units=km Geometry=3PH_H-2/0_ACSR2/0_ACSR2/0_ACSR2_ACSR normamps=225 emergamps=300 !upgraded from 1PH-xx4_ACSR4_ACSR normamps=90 emergamps=130               
New Line.LN6259999-1         bus1=M1069213            bus2=M1069215            length=0.157329854 units=km Geometry=3PH_H-2/0_ACSR2/0_ACSR2/0_ACSR2_ACSR normamps=225 emergamps=300 !upgraded from 1PH-xx4_ACSR4_ACSR normamps=90 emergamps=130 !New 3-ph line
New Line.DG1069MT1_sw        bus1=M1069DER480-1       bus2=M1069-MT1           switch=True r1=0.001 r0=0.001 x1=0.001 x0=0.001 C1=0 C0=0 length=0.001                               !New 3-ph disconnect switch
New Line.LN6259993-1         bus1=M1069213            bus2=M1069217            length=0.096557637 units=km Geometry=3PH_H-2/0_ACSR2/0_ACSR2/0_ACSR2_ACSR normamps=225 emergamps=300 !upgraded from 1PH-xx4_ACSR4_ACSR normamps=90 emergamps=130               
New Line.LN6411376-1         bus1=M1069217            bus2=L2841626            length=0.004068265 units=km Geometry=3PH_H-2/0_ACSR2/0_ACSR2/0_ACSR2_ACSR normamps=225 emergamps=300 !upgraded from 1PH-xx4_ACSR4_ACSR normamps=90 emergamps=130               
New Line.LN6260019-1         bus1=L2841626            bus2=L3235266            length=0.093547793 units=km Geometry=3PH_H-2/0_ACSR2/0_ACSR2/0_ACSR2_ACSR normamps=225 emergamps=300 !upgraded from 1PH-xx4_ACSR4_ACSR normamps=90 emergamps=130               
New Line.LN6046144-1         bus1=L3235266            bus2=L2801950            length=0.079408777 units=km Geometry=3PH_H-2/0_ACSR2/0_ACSR2/0_ACSR2_ACSR normamps=225 emergamps=300 !upgraded from 1PH-xx4_ACSR4_ACSR normamps=90 emergamps=130               
New Line.LN6137087-1         bus1=L2801950            bus2=M1069224            length=0.032899004 units=km Geometry=3PH_H-2/0_ACSR2/0_ACSR2/0_ACSR2_ACSR normamps=225 emergamps=300 !upgraded from 1PH-xx4_ACSR1/0_TPX                        
New Line.LN6137088-1         bus1=M1069224            bus2=M1069230            length=0.232744548 units=km Geometry=3PH_H-2/0_ACSR2/0_ACSR2/0_ACSR2_ACSR normamps=225 emergamps=300
New Line.TSW10691069_sw      bus1=M1069230            bus2=M1069300            switch=True r1=0.001 r0=0.001 x1=0.001 x0=0.001 C1=0 C0=0 length=0.001                               !New 3-ph tie switch
New Line.LN5637600-1         bus1=M1069300            bus2=M1069310            length=0.235837957 units=km Geometry=3PH_H-2/0_ACSR2/0_ACSR2/0_ACSR2_ACSR normamps=225 emergamps=300
New Line.LN5486729-1         bus1=M1069311            bus2=M1069310            length=0.000560638 units=km Geometry=3PH_H-2/0_ACSR2/0_ACSR2/0_ACSR2_ACSR normamps=225 emergamps=300    
New Line.LN5965099-2         bus1=L3159448            bus2=M1069311            length=0.002488518 units=km Geometry=3PH_H-2/0_ACSR2/0_ACSR2/0_ACSR2_ACSR normamps=225 emergamps=300    
New Line.LN5965099-9         bus1=N1138607            bus2=L3159448            length=0.064313474 units=km Geometry=3PH_H-2/0_ACSR2/0_ACSR2/0_ACSR2_ACSR normamps=225 emergamps=300    
New Line.LN5965099-8         bus1=M4113347            bus2=N1138607            length=0.023221022 units=km Geometry=3PH_H-2/0_ACSR2/0_ACSR2/0_ACSR2_ACSR normamps=225 emergamps=300    
New Line.LN5965099-11        bus1=N1144668            bus2=M4113347            length=0.029610516 units=km Geometry=3PH_H-2/0_ACSR2/0_ACSR2/0_ACSR2_ACSR normamps=225 emergamps=300
New Line.LN5965099-10        bus1=M1069350            bus2=N1144668            length=0.026748079 units=km Geometry=3PH_H-2/0_ACSR2/0_ACSR2/0_ACSR2_ACSR normamps=225 emergamps=300    
New Line.LN5517002-2         bus1=L3143999            bus2=M1069350            length=0.002950729 units=km Geometry=3PH_H-2/0_ACSR2/0_ACSR2/0_ACSR2_ACSR normamps=225 emergamps=300
New Line.LN5517002-9         bus1=N1138604            bus2=L3143999            length=0.078126157 units=km Geometry=3PH_H-2/0_ACSR2/0_ACSR2/0_ACSR2_ACSR normamps=225 emergamps=300    
New Line.LN5517002-3         bus1=L3125349            bus2=N1138604            length=0.060300362 units=km Geometry=3PH_H-2/0_ACSR2/0_ACSR2/0_ACSR2_ACSR normamps=225 emergamps=300
New Line.LN6375549-5         bus1=N1138603            bus2=L3125349            length=0.022080165 units=km Geometry=3PH_H-2/0_ACSR2/0_ACSR2/0_ACSR2_ACSR normamps=225 emergamps=300
New Line.LN6375549-6         bus1=L3181545            bus2=N1138603            length=0.078544886 units=km Geometry=3PH_H-2/0_ACSR2/0_ACSR2/0_ACSR2_ACSR normamps=225 emergamps=300
New Line.LN6375549-3         bus1=N1138599            bus2=L3181545            length=0.063193336 units=km Geometry=3PH_H-2/0_ACSR2/0_ACSR2/0_ACSR2_ACSR normamps=225 emergamps=300
New Line.LN6375549-4         bus1=M1069376            bus2=N1138599            length=0.021995614 units=km Geometry=3PH_H-2/0_ACSR2/0_ACSR2/0_ACSR2_ACSR normamps=225 emergamps=300 
New Line.LN6229829-3         bus1=N1138598            bus2=M1069376            length=0.014821554 units=km Geometry=3PH_H-2/0_ACSR2/0_ACSR2/0_ACSR2_ACSR normamps=225 emergamps=300    
New Line.LN6229829-2         bus1=L2822877            bus2=N1138598            length=0.02327281  units=km Geometry=3PH_H-2/0_ACSR2/0_ACSR2/0_ACSR2_ACSR normamps=225 emergamps=300    
New Line.LN5895812-1         bus1=M1069382            bus2=L2822877            length=0.038731708 units=km Geometry=3PH_H-2/0_ACSR2/0_ACSR2/0_ACSR2_ACSR normamps=225 emergamps=300    
New Line.LN6380838-1         bus1=L2766741            bus2=M1069382            length=0.061136932 units=km Geometry=3PH_H-2/0_ACSR2/0_ACSR2/0_ACSR2_ACSR normamps=225 emergamps=300
New Line.LN5956487-1         bus1=M1069411            bus2=L2766741            length=0.087157015 units=km Geometry=3PH_H-2/0_ACSR2/0_ACSR2/0_ACSR2_ACSR normamps=225 emergamps=300    
New Line.LN5956457-3         bus1=N1138597            bus2=M1069411            length=0.04788032  units=km Geometry=3PH_H-2/0_ACSR2/0_ACSR2/0_ACSR2_ACSR normamps=225 emergamps=300    
New Line.LN5956457-2         bus1=M1069417            bus2=N1138597            length=0.031773723 units=km Geometry=3PH_H-2/0_ACSR2/0_ACSR2/0_ACSR2_ACSR normamps=225 emergamps=300    
New Line.LN5926291-1         bus1=M1069418            bus2=M1069417            length=0.087770103 units=km Geometry=3PH_H-2/0_ACSR2/0_ACSR2/0_ACSR2_ACSR normamps=225 emergamps=300    
New Line.LN5683810-1         bus1=M1069419            bus2=M1069418            length=0.048491679 units=km Geometry=3PH_H-2/0_ACSR2/0_ACSR2/0_ACSR2_ACSR normamps=225 emergamps=300    
New Line.LN6350533-5         bus1=M4277837            bus2=M1069419            length=0.068968458 units=km Geometry=3PH_H-2/0_ACSR2/0_ACSR2/0_ACSR2_ACSR normamps=225 emergamps=300    
New Line.LN6350533-4         bus1=M1069420            bus2=M4277837            length=0.17048585  units=km Geometry=3PH_H-2/0_ACSR2/0_ACSR2/0_ACSR2_ACSR normamps=225 emergamps=300    
New Line.LN5835131-1         bus1=L2935549            bus2=M1069420            length=0.096022455 units=km Geometry=3PH_H-2/0_ACSR2/0_ACSR2/0_ACSR2_ACSR normamps=225 emergamps=300    
New Line.LN6290203-1         bus1=M1069424            bus2=L2935549            length=0.088596305 units=km Geometry=3PH_H-2/0_ACSR2/0_ACSR2/0_ACSR2_ACSR normamps=225 emergamps=300    
New Line.LN6047604-1         bus1=M1069428            bus2=M1069424            length=0.076660914 units=km Geometry=3PH_H-2/0_ACSR2/0_ACSR2/0_ACSR2_ACSR normamps=225 emergamps=300    
New Line.LN5956499-3         bus1=Q14411              bus2=M1069428            length=0.045358185 units=km Geometry=3PH_H-2/0_ACSR2/0_ACSR2/0_ACSR2_ACSR normamps=225 emergamps=300      
New Line.LN4625680_sw        bus1=D5956499-2_INT      bus2=Q14411              switch=True r1=0.001 r0=0.001 x1=0.001 x0=0.001 C1=0 C0=0 length=0.001
New Line.LN5956499-2         bus1=L2766749            bus2=D5956499-2_INT      length=0.040739038 units=km Geometry=3PH_H-2/0_ACSR2/0_ACSR2/0_ACSR2_ACSR normamps=225 emergamps=300    
New Line.LN5502569-1         bus1=M1069438            bus2=L2766749            length=0.068016871 units=km Geometry=3PH_H-2/0_ACSR2/0_ACSR2/0_ACSR2_ACSR normamps=225 emergamps=300              
New Line.LN5472402-1         bus1=L2925506            bus2=M1069438            length=0.03125161  units=km Geometry=3PH_H-2/0_ACSR2/0_ACSR2/0_ACSR2_ACSR normamps=225 emergamps=300    
New Line.LN5865268-3         bus1=N1139260            bus2=L2925506            length=0.10220529  units=km Geometry=3PH_H-2/0_ACSR2/0_ACSR2/0_ACSR2_ACSR normamps=225 emergamps=300    
New Line.LN5865268-2         bus1=M1069457            bus2=N1139260            length=0.006837993 units=km Geometry=3PH_H-2/0_ACSR2/0_ACSR2/0_ACSR2_ACSR normamps=225 emergamps=300
New Line.TSW803273_sw        bus1=D5803273-1_INT      bus2=M1069457            switch=True r1=0.001 r0=0.001 x1=0.001 x0=0.001 C1=0 C0=0 length=0.001              !New 3-ph switch
New Line.LN5803273-1         bus1=L2876798            bus2=D5803273-1_INT      length=0.1014281   units=km Geometry=3PH_H-2/0_ACSR2/0_ACSR2/0_ACSR2_ACSR normamps=225 emergamps=300
New Line.LN6258443-1         bus1=M1069461            bus2=L2876798            length=0.04901646  units=km Geometry=3PH_H-2/0_ACSR2/0_ACSR2/0_ACSR2_ACSR normamps=225 emergamps=300    
New Line.LN5593251-1         bus1=M1069464            bus2=M1069461            length=0.080336373 units=km Geometry=3PH_H-2/0_ACSR2/0_ACSR2/0_ACSR2_ACSR normamps=225 emergamps=300    
New Line.LN5532785-1         bus1=M1069468            bus2=M1069464            length=0.073122501 units=km Geometry=3PH_H-2/0_ACSR2/0_ACSR2/0_ACSR2_ACSR normamps=225 emergamps=300    
New Line.LN5835173-1         bus1=L3216367            bus2=M1069468            length=0.04134682  units=km Geometry=3PH_H-2/0_ACSR2/0_ACSR2/0_ACSR2_ACSR normamps=225 emergamps=300    
New Line.LN5774495-1         bus1=L2991939            bus2=L3216367            length=0.093755509 units=km Geometry=3PH_H-2/0_ACSR2/0_ACSR2/0_ACSR2_ACSR normamps=225 emergamps=300    
New Line.LN6199557-1         bus1=L2673308            bus2=L2991939            length=0.11260967  units=km Geometry=3PH_H-2/0_ACSR2/0_ACSR2/0_ACSR2_ACSR normamps=225 emergamps=300    
New Line.LN5833717-1         bus1=L2745848            bus2=L2673308            length=0.057554467 units=km Geometry=3PH_H-2/0_ACSR2/0_ACSR2/0_ACSR2_ACSR normamps=225 emergamps=300    
New Line.LN6106657-1         bus1=M1069481            bus2=L2745848            length=0.026870119 units=km Geometry=3PH_H-2/0_ACSR2/0_ACSR2/0_ACSR2_ACSR normamps=225 emergamps=300    
New Line.LN6229793-1         bus1=M1069483            bus2=M1069481            length=0.050953357 units=km Geometry=3PH_H-2/0_ACSR2/0_ACSR2/0_ACSR2_ACSR normamps=225 emergamps=300    
New Line.LN6077774-1         bus1=M1047480            bus2=M1069483            length=0.11398234  units=km Geometry=3PH_H-2/0_ACSR2/0_ACSR2/0_ACSR2_ACSR normamps=225 emergamps=300    
New Line.LN6259987-1         bus1=M1047483            bus2=M1047480            length=0.079587956 units=km Geometry=3PH_H-2/0_ACSR2/0_ACSR2/0_ACSR2_ACSR normamps=225 emergamps=300    
New Line.LN6169246-1         bus1=L3010560            bus2=M1047483            length=0.032611808 units=km Geometry=3PH_H-2/0_ACSR2/0_ACSR2/0_ACSR2_ACSR normamps=225 emergamps=300    
New Line.LN6290205-1         bus1=M1047484            bus2=L3010560            length=0.059089526 units=km Geometry=3PH_H-2/0_ACSR2/0_ACSR2/0_ACSR2_ACSR normamps=225 emergamps=300    
New Line.LN6012046-1         bus1=M1047486            bus2=M1047484            length=0.099727563 units=km Geometry=3PH_H-2/0_ACSR2/0_ACSR2/0_ACSR2_ACSR normamps=225 emergamps=300    
New Line.LN5532753-1         bus1=L3122821            bus2=M1047486            length=0.13791251  units=km Geometry=3PH_H-2/0_ACSR2/0_ACSR2/0_ACSR2_ACSR normamps=225 emergamps=300    
New Line.LN5829831-1         bus1=M1047485            bus2=L3122821            length=0.19680998  units=km Geometry=3PH_H-2/0_ACSR2/0_ACSR2/0_ACSR2_ACSR normamps=225 emergamps=300    
New Line.LN5739188-1         bus1=L2726973            bus2=M1047485            length=0.084637173 units=km Geometry=3PH_H-2/0_ACSR2/0_ACSR2/0_ACSR2_ACSR normamps=225 emergamps=300    
New Line.LN6047576-1         bus1=M1047490            bus2=L2726973            length=0.072453304 units=km Geometry=3PH_H-2/0_ACSR2/0_ACSR2/0_ACSR2_ACSR normamps=225 emergamps=300    
New Line.LN6169261-1         bus1=L2822872            bus2=M1047490            length=0.092823918 units=km Geometry=3PH_H-2/0_ACSR2/0_ACSR2/0_ACSR2_ACSR normamps=225 emergamps=300    
New Line.LN5895793-1         bus1=L3104136            bus2=L2822872            length=0.14253728  units=km Geometry=3PH_H-2/0_ACSR2/0_ACSR2/0_ACSR2_ACSR normamps=225 emergamps=300    
New Line.LN6134514-1         bus1=M1047497            bus2=L3104136            length=0.023132937 units=km Geometry=3PH_H-2/0_ACSR2/0_ACSR2/0_ACSR2_ACSR normamps=225 emergamps=300    
New Line.LN6134514-2         bus1=L3160109            bus2=M1047497            length=0.071936457 units=km Geometry=3PH_H-2/0_ACSR2/0_ACSR2/0_ACSR2_ACSR normamps=225 emergamps=300    
New Line.LN5800830-1         bus1=196-29520           bus2=L3160109            length=0.064648533 units=km Geometry=3PH_H-2/0_ACSR2/0_ACSR2/0_ACSR2_ACSR normamps=225 emergamps=300    
New Line.LN5742811-4         bus1=N1137992            bus2=196-29520           length=0.004539509 units=km Geometry=3PH_H-2/0_ACSR2/0_ACSR2/0_ACSR2_ACSR normamps=225 emergamps=300    
New Line.LN0742811_sw        bus1=D5742811-3_INT      bus2=N1137992            switch=True r1=0.001 r0=0.001 x1=0.001 x0=0.001 C1=0 C0=0 length=0.001              !New 3-ph switch
New Line.LN5742811-3         bus1=L2820531            bus2=D5742811-3_INT      length=0.037420411 units=km Geometry=3PH_H-2/0_ACSR2/0_ACSR2/0_ACSR2_ACSR normamps=225 emergamps=300    
New Line.LN5742811-1         bus1=M1047507            bus2=L2820531            length=0.039868308 units=km Geometry=3PH_H-2/0_ACSR2/0_ACSR2/0_ACSR2_ACSR normamps=225 emergamps=300    


...